<nodes>
    <node id="north" x="0" y="500" type="priority"/>
    <node id="south" x="0" y="-500" type="priority"/>
    <node id="east" x="500" y="0" type="priority"/>
    <node id="west" x="-500" y="0" type="priority"/>
    <node id="center" x="0" y="0" type="traffic_light"/>
</nodes>