<routes>
    <vType id="car" accel="2.6" decel="4.5" sigma="0.5" length="5" maxSpeed="25"/>

    <route id="route_1" edges="road_1"/>

    <vehicle id="veh1" type="car" route="route_1" depart="0"/>
    <vehicle id="veh2" type="car" route="route_1" depart="1"/>
    <vehicle id="veh3" type="car" route="route_1" depart="2"/>
    <vehicle id="veh4" type="car" route="route_1" depart="3"/>
    <vehicle id="veh5" type="car" route="route_1" depart="4"/>
    <vehicle id="veh6" type="car" route="route_1" depart="5"/>
    <vehicle id="veh7" type="car" route="route_1" depart="6"/>
    <vehicle id="veh8" type="car" route="route_1" depart="7"/>
    <vehicle id="veh9" type="car" route="route_1" depart="8"/>
    <vehicle id="veh10" type="car" route="route_1" depart="9"/>
    <vehicle id="veh11" type="car" route="route_1" depart="10"/>
    <vehicle id="veh12" type="car" route="route_1" depart="11"/>
    <vehicle id="veh13" type="car" route="route_1" depart="12"/>
    <vehicle id="veh14" type="car" route="route_1" depart="13"/>
    <vehicle id="veh15" type="car" route="route_1" depart="14"/>
    <vehicle id="veh16" type="car" route="route_1" depart="15"/>
    <vehicle id="veh17" type="car" route="route_1" depart="16"/>
    <vehicle id="veh18" type="car" route="route_1" depart="17"/>
    <vehicle id="veh19" type="car" route="route_1" depart="18"/>
    <vehicle id="veh20" type="car" route="route_1" depart="19"/>
    <vehicle id="veh21" type="car" route="route_1" depart="20"/>
    <vehicle id="veh22" type="car" route="route_1" depart="21"/>
    <vehicle id="veh23" type="car" route="route_1" depart="22"/>
    <vehicle id="veh24" type="car" route="route_1" depart="23"/>
    <vehicle id="veh25" type="car" route="route_1" depart="24"/>
    <vehicle id="veh26" type="car" route="route_1" depart="25"/>
    <vehicle id="veh27" type="car" route="route_1" depart="26"/>
    <vehicle id="veh28" type="car" route="route_1" depart="27"/>
    <vehicle id="veh29" type="car" route="route_1" depart="28"/>
    <vehicle id="veh30" type="car" route="route_1" depart="29"/>
</routes>